<?xml version="1.0" encoding="UTF-8"?>

<!-- generated on 2023-06-16 08:42:51 by Eclipse SUMO netedit Version 1.16.0
<configuration xmlns:xsi="http://www.w3.org/2001/XMLSchema-instance" xsi:noNamespaceSchemaLocation="http://sumo.dlr.de/xsd/netconvertConfiguration.xsd">

    <input>
        <sumo-net-file value="C:\SUMO\kochi\test.net.xml"/>
    </input>

    <output>
        <output-file value="C:\SUMO\kochi\test.net.xml"/>
    </output>

    <processing>
        <geometry.min-radius.fix.railways value="false"/>
        <geometry.max-grade.fix value="false"/>
        <offset.disable-normalization value="true"/>
        <lefthand value="1"/>
    </processing>

    <junctions>
        <no-turnarounds value="true"/>
        <junctions.corner-detail value="5"/>
        <junctions.limit-turn-speed value="5.50"/>
        <rectangular-lane-cut value="0"/>
    </junctions>

    <pedestrian>
        <walkingareas value="0"/>
    </pedestrian>

</configuration>
-->

<net version="1.16" junctionCornerDetail="5" lefthand="true" limitTurnSpeed="5.50" xmlns:xsi="http://www.w3.org/2001/XMLSchema-instance" xsi:noNamespaceSchemaLocation="http://sumo.dlr.de/xsd/net_file.xsd">

    <location netOffset="-635647.41,-1100308.88" convBoundary="0.00,0.00,2495.80,1870.27" origBoundary="76.237484,9.951532,76.260214,9.969130" projParameter="+proj=utm +zone=43 +ellps=WGS84 +datum=WGS84 +units=m +no_defs"/>

    <type id="highway.bridleway" priority="1" numLanes="1" speed="2.78" allow="pedestrian" oneway="1" width="2.00"/>
    <type id="highway.bus_guideway" priority="1" numLanes="1" speed="27.78" allow="bus" oneway="1"/>
    <type id="highway.cycleway" priority="1" numLanes="1" speed="5.56" allow="bicycle" oneway="0" width="1.00"/>
    <type id="highway.footway" priority="1" numLanes="1" speed="2.78" allow="pedestrian" oneway="1" width="2.00"/>
    <type id="highway.ford" priority="1" numLanes="1" speed="2.78" allow="army" oneway="0"/>
    <type id="highway.living_street" priority="2" numLanes="1" speed="2.78" disallow="tram rail_urban rail rail_electric rail_fast ship" oneway="0"/>
    <type id="highway.motorway" priority="14" numLanes="2" speed="39.44" allow="private emergency authority army vip passenger hov taxi bus coach delivery truck trailer motorcycle evehicle custom1 custom2" oneway="1"/>
    <type id="highway.motorway_link" priority="9" numLanes="1" speed="22.22" allow="private emergency authority army vip passenger hov taxi bus coach delivery truck trailer motorcycle evehicle custom1 custom2" oneway="1"/>
    <type id="highway.path" priority="1" numLanes="1" speed="5.56" allow="pedestrian bicycle" oneway="0" width="2.00"/>
    <type id="highway.pedestrian" priority="1" numLanes="1" speed="2.78" allow="pedestrian" oneway="1" width="2.00"/>
    <type id="highway.primary" priority="12" numLanes="2" speed="27.78" disallow="tram rail_urban rail rail_electric rail_fast ship" oneway="0"/>
    <type id="highway.primary_link" priority="7" numLanes="1" speed="22.22" disallow="tram rail_urban rail rail_electric rail_fast ship" oneway="0"/>
    <type id="highway.raceway" priority="15" numLanes="2" speed="83.33" allow="vip" oneway="0"/>
    <type id="highway.residential" priority="3" numLanes="1" speed="13.89" disallow="tram rail_urban rail rail_electric rail_fast ship" oneway="0"/>
    <type id="highway.secondary" priority="11" numLanes="1" speed="27.78" disallow="tram rail_urban rail rail_electric rail_fast ship" oneway="0"/>
    <type id="highway.secondary_link" priority="6" numLanes="1" speed="22.22" disallow="tram rail_urban rail rail_electric rail_fast ship" oneway="0"/>
    <type id="highway.service" priority="1" numLanes="1" speed="5.56" allow="pedestrian delivery bicycle" oneway="0"/>
    <type id="highway.stairs" priority="1" numLanes="1" speed="1.39" allow="pedestrian" oneway="1" width="2.00"/>
    <type id="highway.step" priority="1" numLanes="1" speed="1.39" allow="pedestrian" oneway="1" width="2.00"/>
    <type id="highway.steps" priority="1" numLanes="1" speed="1.39" allow="pedestrian" oneway="1" width="2.00"/>
    <type id="highway.tertiary" priority="10" numLanes="1" speed="22.22" disallow="tram rail_urban rail rail_electric rail_fast ship" oneway="0"/>
    <type id="highway.tertiary_link" priority="5" numLanes="1" speed="22.22" disallow="tram rail_urban rail rail_electric rail_fast ship" oneway="0"/>
    <type id="highway.track" priority="1" numLanes="1" speed="5.56" allow="pedestrian motorcycle moped bicycle" oneway="0"/>
    <type id="highway.trunk" priority="13" numLanes="2" speed="27.78" disallow="pedestrian bicycle tram rail_urban rail rail_electric rail_fast ship" oneway="0"/>
    <type id="highway.trunk_link" priority="8" numLanes="1" speed="22.22" disallow="pedestrian bicycle tram rail_urban rail rail_electric rail_fast ship" oneway="0"/>
    <type id="highway.unclassified" priority="4" numLanes="1" speed="13.89" disallow="tram rail_urban rail rail_electric rail_fast ship" oneway="0"/>
    <type id="highway.unsurfaced" priority="1" numLanes="1" speed="8.33" disallow="tram rail_urban rail rail_electric rail_fast ship" oneway="0"/>
    <type id="railway.highspeed" priority="21" numLanes="1" speed="69.44" allow="rail_fast" oneway="1"/>
    <type id="railway.light_rail" priority="19" numLanes="1" speed="27.78" allow="rail_urban" oneway="1"/>
    <type id="railway.preserved" priority="16" numLanes="1" speed="27.78" allow="rail" oneway="1"/>
    <type id="railway.rail" priority="20" numLanes="1" speed="44.44" allow="rail" oneway="1"/>
    <type id="railway.subway" priority="18" numLanes="1" speed="27.78" allow="rail_urban" oneway="1"/>
    <type id="railway.tram" priority="17" numLanes="1" speed="13.89" allow="tram" oneway="1"/>

    <edge id=":10166842858_0" function="internal">
        <lane id=":10166842858_0_0" index="0" disallow="tram rail_urban rail rail_electric rail_fast ship" speed="13.89" length="5.01" shape="1563.12,1756.09 1559.19,1752.98"/>
    </edge>
    <edge id=":10166842858_1" function="internal">
        <lane id=":10166842858_1_0" index="0" disallow="tram rail_urban rail rail_electric rail_fast ship" speed="13.89" length="5.00" shape="1557.21,1755.50 1561.13,1758.60"/>
    </edge>
    <edge id=":10168788323_0" function="internal">
        <lane id=":10168788323_0_0" index="0" disallow="tram rail_urban rail rail_electric rail_fast ship" speed="7.17" length="9.87" shape="999.52,834.81 996.69,834.39 994.58,833.32 993.18,831.62 992.49,829.28"/>
    </edge>
    <edge id=":10168788323_1" function="internal">
        <lane id=":10168788323_1_0" index="0" disallow="tram rail_urban rail rail_electric rail_fast ship" speed="7.75" length="14.82" shape="999.52,834.81 995.39,835.27 992.61,836.96 991.17,839.88 991.09,844.04"/>
    </edge>
    <edge id=":10168788323_2" function="internal">
        <lane id=":10168788323_2_0" index="0" disallow="tram rail_urban rail rail_electric rail_fast ship" speed="3.65" length="4.67" shape="999.52,834.81 998.29,835.57 997.87,836.36 998.24,837.17 999.41,838.01"/>
    </edge>
    <edge id=":10168788323_3" function="internal">
        <lane id=":10168788323_3_0" index="0" disallow="tram rail_urban rail rail_electric rail_fast ship" speed="6.20" length="9.05" shape="994.26,843.65 994.32,841.11 995.19,839.32 996.89,838.29 999.41,838.01"/>
    </edge>
    <edge id=":10168788323_4" function="internal">
        <lane id=":10168788323_4_0" index="0" disallow="tram rail_urban rail rail_electric rail_fast ship" speed="13.89" length="14.48" shape="994.26,843.65 992.49,829.28"/>
    </edge>
    <edge id=":10168788323_5" function="internal">
        <lane id=":10168788323_5_0" index="0" disallow="tram rail_urban rail rail_electric rail_fast ship" speed="3.65" length="1.44" shape="994.26,843.65 993.32,842.55"/>
    </edge>
    <edge id=":10168788323_9" function="internal">
        <lane id=":10168788323_9_0" index="0" disallow="tram rail_urban rail rail_electric rail_fast ship" speed="3.65" length="3.23" shape="993.32,842.55 992.48,842.25 991.73,842.75 991.09,844.04"/>
    </edge>
    <edge id=":10168788323_6" function="internal">
        <lane id=":10168788323_6_0" index="0" disallow="tram rail_urban rail rail_electric rail_fast ship" speed="13.89" length="14.48" shape="989.32,829.67 991.09,844.04"/>
    </edge>
    <edge id=":10168788323_7" function="internal">
        <lane id=":10168788323_7_0" index="0" disallow="tram rail_urban rail rail_electric rail_fast ship" speed="8.56" length="3.84" shape="989.32,829.67 990.32,833.21 990.42,833.33"/>
    </edge>
    <edge id=":10168788323_8" function="internal">
        <lane id=":10168788323_8_0" index="0" disallow="tram rail_urban rail rail_electric rail_fast ship" speed="3.65" length="1.44" shape="989.32,829.67 990.26,830.76"/>
    </edge>
    <edge id=":10168788323_10" function="internal">
        <lane id=":10168788323_10_0" index="0" disallow="tram rail_urban rail rail_electric rail_fast ship" speed="8.56" length="10.63" shape="990.42,833.33 992.34,835.78 995.37,837.38 999.41,838.01"/>
    </edge>
    <edge id=":10168788323_11" function="internal">
        <lane id=":10168788323_11_0" index="0" disallow="tram rail_urban rail rail_electric rail_fast ship" speed="3.65" length="3.23" shape="990.26,830.76 991.10,831.06 991.85,830.57 992.49,829.28"/>
    </edge>
    <edge id=":10213599580_0" function="internal">
        <lane id=":10213599580_0_0" index="0" disallow="tram rail_urban rail rail_electric rail_fast ship" speed="13.89" length="14.40" shape="332.98,686.00 332.27,700.38"/>
    </edge>
    <edge id=":10213599580_1" function="internal">
        <lane id=":10213599580_1_0" index="0" disallow="tram rail_urban rail rail_electric rail_fast ship" speed="7.98" length="3.91" shape="332.98,686.00 333.43,689.88"/>
    </edge>
    <edge id=":10213599580_2" function="internal">
        <lane id=":10213599580_2_0" index="0" disallow="tram rail_urban rail rail_electric rail_fast ship" speed="3.65" length="1.44" shape="332.98,686.00 333.75,687.22"/>
    </edge>
    <edge id=":10213599580_9" function="internal">
        <lane id=":10213599580_9_0" index="0" disallow="tram rail_urban rail rail_electric rail_fast ship" speed="7.98" length="10.33" shape="333.43,689.88 335.01,692.67 337.74,694.38 341.60,694.99"/>
    </edge>
    <edge id=":10213599580_10" function="internal">
        <lane id=":10213599580_10_0" index="0" disallow="tram rail_urban rail rail_electric rail_fast ship" speed="3.65" length="3.23" shape="333.75,687.22 334.54,687.64 335.35,687.26 336.18,686.09"/>
    </edge>
    <edge id=":10213599580_3" function="internal">
        <lane id=":10213599580_3_0" index="0" disallow="tram rail_urban rail rail_electric rail_fast ship" speed="6.48" length="9.03" shape="341.65,691.79 339.20,691.40 337.47,690.32 336.46,688.55 336.18,686.09"/>
    </edge>
    <edge id=":10213599580_4" function="internal">
        <lane id=":10213599580_4_0" index="0" disallow="tram rail_urban rail rail_electric rail_fast ship" speed="8.29" length="14.21" shape="341.65,691.79 337.90,692.28 335.10,693.87 333.22,696.57 332.27,700.38"/>
    </edge>
    <edge id=":10213599580_5" function="internal">
        <lane id=":10213599580_5_0" index="0" disallow="tram rail_urban rail rail_electric rail_fast ship" speed="3.65" length="4.67" shape="341.65,691.79 340.43,692.57 340.02,693.37 340.41,694.17 341.60,694.99"/>
    </edge>
    <edge id=":10213599580_6" function="internal">
        <lane id=":10213599580_6_0" index="0" disallow="tram rail_urban rail rail_electric rail_fast ship" speed="6.78" length="9.18" shape="335.48,700.46 336.09,698.04 337.32,696.32 339.15,695.30 341.60,694.99"/>
    </edge>
    <edge id=":10213599580_7" function="internal">
        <lane id=":10213599580_7_0" index="0" disallow="tram rail_urban rail rail_electric rail_fast ship" speed="13.89" length="14.39" shape="335.48,700.46 336.18,686.09"/>
    </edge>
    <edge id=":10213599580_8" function="internal">
        <lane id=":10213599580_8_0" index="0" disallow="tram rail_urban rail rail_electric rail_fast ship" speed="3.65" length="1.45" shape="335.48,700.46 334.71,699.24"/>
    </edge>
    <edge id=":10213599580_11" function="internal">
        <lane id=":10213599580_11_0" index="0" disallow="tram rail_urban rail rail_electric rail_fast ship" speed="3.65" length="3.24" shape="334.71,699.24 333.92,698.81 333.11,699.19 332.27,700.38"/>
    </edge>
    <edge id=":10213599581_0" function="internal">
        <lane id=":10213599581_0_0" index="0" disallow="tram rail_urban rail rail_electric rail_fast ship" speed="3.65" length="4.67" shape="384.05,695.63 385.26,694.85 385.67,694.05 385.28,693.25 384.09,692.43"/>
    </edge>
    <edge id=":1021750931_0" function="internal">
        <lane id=":1021750931_0_0" index="0" disallow="tram rail_urban rail rail_electric rail_fast ship" speed="6.26" length="9.04" shape="910.96,1069.82 910.59,1072.32 909.50,1073.99 907.69,1074.86 905.17,1074.90"/>
    </edge>
    <edge id=":1021750931_1" function="internal">
        <lane id=":1021750931_1_0" index="0" disallow="tram rail_urban rail rail_electric rail_fast ship" speed="27.78" length="14.51" shape="910.96,1069.82 910.55,1084.32"/>
    </edge>
    <edge id=":1021750931_2" function="internal">
        <lane id=":1021750931_2_0" index="0" disallow="tram rail_urban rail rail_electric rail_fast ship" speed="3.65" length="1.44" shape="910.96,1069.82 911.76,1071.03"/>
    </edge>
    <edge id=":1021750931_9" function="internal">
        <lane id=":1021750931_9_0" index="0" disallow="tram rail_urban rail rail_electric rail_fast ship" speed="3.65" length="3.23" shape="911.76,1071.03 912.55,1071.43 913.36,1071.04 914.16,1069.84"/>
    </edge>
    <edge id=":1021750931_3" function="internal">
        <lane id=":1021750931_3_0" index="0" disallow="tram rail_urban rail rail_electric rail_fast ship" speed="27.78" length="14.66" shape="913.74,1084.49 914.16,1069.84"/>
    </edge>
    <edge id=":1021750931_4" function="internal">
        <lane id=":1021750931_4_0" index="0" disallow="tram rail_urban rail rail_electric rail_fast ship" speed="8.28" length="4.12" shape="913.74,1084.49 913.38,1080.72 913.22,1080.44"/>
    </edge>
    <edge id=":1021750931_5" function="internal">
        <lane id=":1021750931_5_0" index="0" disallow="tram rail_urban rail rail_electric rail_fast ship" speed="3.65" length="1.44" shape="913.74,1084.49 913.01,1083.25"/>
    </edge>
    <edge id=":1021750931_10" function="internal">
        <lane id=":1021750931_10_0" index="0" disallow="tram rail_urban rail rail_electric rail_fast ship" speed="8.28" length="10.33" shape="913.22,1080.44 911.83,1077.87 909.09,1075.93 905.17,1074.90"/>
    </edge>
    <edge id=":1021750931_11" function="internal">
        <lane id=":1021750931_11_0" index="0" disallow="tram rail_urban rail rail_electric rail_fast ship" speed="3.65" length="3.23" shape="913.01,1083.25 912.23,1082.81 911.41,1083.17 910.55,1084.32"/>
    </edge>
    <edge id=":1021750931_6" function="internal">
        <lane id=":1021750931_6_0" index="0" disallow="tram rail_urban rail rail_electric rail_fast ship" speed="6.84" length="9.55" shape="904.77,1078.08 907.41,1078.75 909.25,1080.02 910.30,1081.88 910.55,1084.32"/>
    </edge>
    <edge id=":1021750931_7" function="internal">
        <lane id=":1021750931_7_0" index="0" disallow="tram rail_urban rail rail_electric rail_fast ship" speed="7.80" length="14.67" shape="904.77,1078.08 908.86,1078.00 911.79,1076.61 913.56,1073.89 914.16,1069.84"/>
    </edge>
    <edge id=":1021750931_8" function="internal">
        <lane id=":1021750931_8_0" index="0" disallow="tram rail_urban rail rail_electric rail_fast ship" speed="3.65" length="4.67" shape="904.77,1078.08 906.06,1077.43 906.56,1076.69 906.26,1075.84 905.17,1074.90"/>
    </edge>
    <edge id=":10229596491_0" function="internal">
        <lane id=":10229596491_0_0" index="0" disallow="tram rail_urban rail rail_electric rail_fast ship" speed="13.89" length="13.54" shape="424.17,468.50 420.66,468.27 417.43,467.91 414.22,467.37 410.79,466.59"/>
    </edge>
    <edge id=":10229596491_1" function="internal">
        <lane id=":10229596491_1_0" index="0" disallow="tram rail_urban rail rail_electric rail_fast ship" speed="7.81" length="4.08" shape="424.17,468.50 420.11,468.87"/>
    </edge>
    <edge id=":10229596491_2" function="internal">
        <lane id=":10229596491_2_0" index="0" disallow="tram rail_urban rail rail_electric rail_fast ship" speed="3.65" length="1.44" shape="424.17,468.50 422.93,469.24"/>
    </edge>
    <edge id=":10229596491_9" function="internal">
        <lane id=":10229596491_9_0" index="0" disallow="tram rail_urban rail rail_electric rail_fast ship" speed="7.81" length="10.56" shape="420.11,468.87 417.30,470.48 415.72,473.31 415.39,477.38"/>
    </edge>
    <edge id=":10229596491_10" function="internal">
        <lane id=":10229596491_10_0" index="0" disallow="tram rail_urban rail rail_electric rail_fast ship" speed="3.65" length="3.23" shape="422.93,469.24 422.49,470.01 422.85,470.83 424.01,471.69"/>
    </edge>
    <edge id=":10229596491_3" function="internal">
        <lane id=":10229596491_3_0" index="0" disallow="tram rail_urban rail rail_electric rail_fast ship" speed="6.28" length="9.04" shape="418.58,477.18 418.79,474.67 419.76,472.92 421.50,471.93 424.01,471.69"/>
    </edge>
    <edge id=":10229596491_4" function="internal">
        <lane id=":10229596491_4_0" index="0" disallow="tram rail_urban rail rail_electric rail_fast ship" speed="9.09" length="14.16" shape="418.58,477.18 417.89,473.24 416.37,470.17 414.00,467.95 410.79,466.59"/>
    </edge>
    <edge id=":10229596491_5" function="internal">
        <lane id=":10229596491_5_0" index="0" disallow="tram rail_urban rail rail_electric rail_fast ship" speed="3.65" length="4.67" shape="418.58,477.18 417.71,476.03 416.89,475.68 416.11,476.13 415.39,477.38"/>
    </edge>
    <edge id=":10229596491_6" function="internal">
        <lane id=":10229596491_6_0" index="0" disallow="tram rail_urban rail rail_electric rail_fast ship" speed="7.76" length="10.11" shape="409.99,469.68 412.21,470.65 413.84,472.25 414.90,474.49 415.39,477.38"/>
    </edge>
    <edge id=":10229596491_7" function="internal">
        <lane id=":10229596491_7_0" index="0" disallow="tram rail_urban rail rail_electric rail_fast ship" speed="13.89" length="14.18" shape="409.99,469.68 413.52,470.49 416.95,471.06 420.39,471.45 424.01,471.69"/>
    </edge>
    <edge id=":10229596491_8" function="internal">
        <lane id=":10229596491_8_0" index="0" disallow="tram rail_urban rail rail_electric rail_fast ship" speed="3.65" length="1.44" shape="409.99,469.68 411.36,469.21"/>
    </edge>
    <edge id=":10229596491_11" function="internal">
        <lane id=":10229596491_11_0" index="0" disallow="tram rail_urban rail rail_electric rail_fast ship" speed="3.65" length="3.23" shape="411.36,469.21 411.94,468.53 411.75,467.66 410.79,466.59"/>
    </edge>
    <edge id=":10229596492_0" function="internal">
        <lane id=":10229596492_0_0" index="0" disallow="tram rail_urban rail rail_electric rail_fast ship" speed="3.65" length="4.67" shape="416.90,501.88 417.78,503.03 418.60,503.38 419.37,502.93 420.10,501.68"/>
    </edge>
    <edge id=":10234688015_0" function="internal">
        <lane id=":10234688015_0_0" index="0" disallow="tram rail_urban rail rail_electric rail_fast ship" speed="27.78" length="9.72" shape="677.18,1523.61 675.63,1521.18 674.71,1519.44 673.91,1517.63 672.70,1515.01"/>
    </edge>
    <edge id=":10234688015_1" function="internal">
        <lane id=":10234688015_1_0" index="0" disallow="tram rail_urban rail rail_electric rail_fast ship" speed="8.12" length="1.81" shape="677.18,1523.61 675.84,1522.58 675.72,1522.56"/>
    </edge>
    <edge id=":10234688015_2" function="internal">
        <lane id=":10234688015_2_0" index="0" disallow="tram rail_urban rail rail_electric rail_fast ship" speed="3.65" length="1.44" shape="677.18,1523.61 675.84,1523.06"/>
    </edge>
    <edge id=":10234688015_9" function="internal">
        <lane id=":10234688015_9_0" index="0" disallow="tram rail_urban rail rail_electric rail_fast ship" speed="8.12" length="9.17" shape="675.72,1522.56 673.65,1522.19 670.60,1522.43 666.68,1523.30"/>
    </edge>
    <edge id=":10234688015_10" function="internal">
        <lane id=":10234688015_10_0" index="0" disallow="tram rail_urban rail rail_electric rail_fast ship" speed="3.65" length="3.23" shape="675.84,1523.06 674.95,1523.18 674.52,1523.96 674.52,1525.40"/>
    </edge>
    <edge id=":10234688015_3" function="internal">
        <lane id=":10234688015_3_0" index="0" disallow="tram rail_urban rail rail_electric rail_fast ship" speed="6.67" length="7.15" shape="667.53,1526.39 668.95,1526.00 671.18,1525.48 673.33,1525.17 674.52,1525.40"/>
    </edge>
    <edge id=":10234688015_4" function="internal">
        <lane id=":10234688015_4_0" index="0" disallow="tram rail_urban rail rail_electric rail_fast ship" speed="7.71" length="14.94" shape="667.53,1526.39 671.39,1524.71 673.54,1522.25 673.97,1519.02 672.70,1515.01"/>
    </edge>
    <edge id=":10234688015_5" function="internal">
        <lane id=":10234688015_5_0" index="0" disallow="tram rail_urban rail rail_electric rail_fast ship" speed="3.65" length="4.67" shape="667.53,1526.39 668.48,1525.30 668.65,1524.42 668.05,1523.75 666.68,1523.30"/>
    </edge>
    <edge id=":10234688015_6" function="internal">
        <lane id=":10234688015_6_0" index="0" disallow="tram rail_urban rail rail_electric rail_fast ship" speed="6.14" length="9.06" shape="669.82,1516.40 670.59,1518.83 670.33,1520.79 669.02,1522.28 666.68,1523.30"/>
    </edge>
    <edge id=":10234688015_7" function="internal">
        <lane id=":10234688015_7_0" index="0" disallow="tram rail_urban rail rail_electric rail_fast ship" speed="27.78" length="10.17" shape="669.82,1516.40 671.08,1519.12 671.94,1521.03 672.91,1522.88 674.52,1525.40"/>
    </edge>
    <edge id=":10234688015_8" function="internal">
        <lane id=":10234688015_8_0" index="0" disallow="tram rail_urban rail rail_electric rail_fast ship" speed="3.65" length="1.44" shape="669.82,1516.40 671.06,1517.13"/>
    </edge>
    <edge id=":10234688015_11" function="internal">
        <lane id=":10234688015_11_0" index="0" disallow="tram rail_urban rail rail_electric rail_fast ship" speed="3.65" length="3.23" shape="671.06,1517.13 671.95,1517.14 672.50,1516.44 672.70,1515.01"/>
    </edge>
    <edge id=":10259294414_0" function="internal">
        <lane id=":10259294414_0_0" index="0" disallow="tram rail_urban rail rail_electric rail_fast ship" speed="22.22" length="0.10" shape="137.28,863.73 137.28,863.73"/>
    </edge>
    <edge id=":10259294414_1" function="internal">
        <lane id=":10259294414_1_0" index="0" disallow="tram rail_urban rail rail_electric rail_fast ship" speed="22.22" length="0.10" shape="140.20,865.05 140.20,865.05"/>
    </edge>
    <edge id=":10259294415_0" function="internal">
        <lane id=":10259294415_0_0" index="0" disallow="tram rail_urban rail rail_electric rail_fast ship" speed="22.22" length="2.52" shape="95.31,956.25 96.39,953.96"/>
    </edge>
    <edge id=":10259294415_1" function="internal">
        <lane id=":10259294415_1_0" index="0" disallow="tram rail_urban rail rail_electric rail_fast ship" speed="22.22" length="2.51" shape="99.28,955.33 98.21,957.60"/>
    </edge>
    <edge id=":10279356811_0" function="internal">
        <lane id=":10279356811_0_0" index="0" disallow="tram rail_urban rail rail_electric rail_fast ship" speed="9.10" length="10.35" shape="294.09,723.18 293.58,726.41 292.70,728.99 291.46,730.92 289.85,732.21"/>
    </edge>
    <edge id=":10279356811_1" function="internal">
        <lane id=":10279356811_1_0" index="0" disallow="tram rail_urban rail rail_electric rail_fast ship" speed="8.61" length="4.14" shape="294.09,723.18 294.18,727.31"/>
    </edge>
    <edge id=":10279356811_2" function="internal">
        <lane id=":10279356811_2_0" index="0" disallow="tram rail_urban rail rail_electric rail_fast ship" speed="3.75" length="1.88" shape="294.09,723.18 294.25,724.73 294.43,724.99"/>
    </edge>
    <edge id=":10279356811_9" function="internal">
        <lane id=":10279356811_9_0" index="0" disallow="tram rail_urban rail rail_electric rail_fast ship" speed="8.61" length="11.43" shape="294.18,727.31 294.19,727.81 295.45,731.33 297.87,733.72 301.44,735.00"/>
    </edge>
    <edge id=":10279356811_10" function="internal">
        <lane id=":10279356811_10_0" index="0" disallow="tram rail_urban rail rail_electric rail_fast ship" speed="3.75" length="3.18" shape="294.43,724.99 294.81,725.52 295.78,725.54 297.15,724.80"/>
    </edge>
    <edge id=":10279356811_3" function="internal">
        <lane id=":10279356811_3_0" index="0" disallow="tram rail_urban rail rail_electric rail_fast ship" speed="6.88" length="9.58" shape="301.99,731.85 299.66,731.06 298.08,729.62 297.24,727.53 297.15,724.80"/>
    </edge>
    <edge id=":10279356811_4" function="internal">
        <lane id=":10279356811_4_0" index="0" disallow="tram rail_urban rail rail_electric rail_fast ship" speed="13.24" length="12.44" shape="301.99,731.85 298.63,731.22 295.73,730.83 292.92,731.04 289.85,732.21"/>
    </edge>
    <edge id=":10279356811_5" function="internal">
        <lane id=":10279356811_5_0" index="0" disallow="tram rail_urban rail rail_electric rail_fast ship" speed="3.65" length="4.67" shape="301.99,731.85 300.67,732.43 300.14,733.15 300.39,734.01 301.44,735.00"/>
    </edge>
    <edge id=":10279356811_6" function="internal">
        <lane id=":10279356811_6_0" index="0" disallow="tram rail_urban rail rail_electric rail_fast ship" speed="12.15" length="10.43" shape="291.36,735.03 294.10,733.91 296.21,733.81 298.41,734.32 301.44,735.00"/>
    </edge>
    <edge id=":10279356811_7" function="internal">
        <lane id=":10279356811_7_0" index="0" disallow="tram rail_urban rail rail_electric rail_fast ship" speed="9.86" length="12.26" shape="291.36,735.03 293.64,733.37 295.36,731.11 296.53,728.25 297.15,724.80"/>
    </edge>
    <edge id=":10279356811_8" function="internal">
        <lane id=":10279356811_8_0" index="0" disallow="tram rail_urban rail rail_electric rail_fast ship" speed="3.65" length="1.44" shape="291.36,735.03 292.04,733.76"/>
    </edge>
    <edge id=":10279356811_11" function="internal">
        <lane id=":10279356811_11_0" index="0" disallow="tram rail_urban rail rail_electric rail_fast ship" speed="3.65" length="3.23" shape="292.04,733.76 292.02,732.86 291.29,732.35 289.85,732.21"/>
    </edge>
    <edge id=":10279356815_0" function="internal">
        <lane id=":10279356815_0_0" index="0" disallow="tram rail_urban rail rail_electric rail_fast ship" speed="22.22" length="14.41" shape="244.09,640.38 237.97,653.42"/>
    </edge>
    <edge id=":10279356815_1" function="internal">
        <lane id=":10279356815_1_0" index="0" disallow="tram rail_urban rail rail_electric rail_fast ship" speed="8.18" length="3.98" shape="244.09,640.38 242.99,644.02 243.01,644.19"/>
    </edge>
    <edge id=":10279356815_2" function="internal">
        <lane id=":10279356815_2_0" index="0" disallow="tram rail_urban rail rail_electric rail_fast ship" speed="3.65" length="1.44" shape="244.09,640.38 244.30,641.80"/>
    </edge>
    <edge id=":10279356815_9" function="internal">
        <lane id=":10279356815_9_0" index="0" disallow="tram rail_urban rail rail_electric rail_fast ship" speed="8.18" length="10.29" shape="243.01,644.19 243.32,647.23 245.09,650.00 248.29,652.33"/>
    </edge>
    <edge id=":10279356815_10" function="internal">
        <lane id=":10279356815_10_0" index="0" disallow="tram rail_urban rail rail_electric rail_fast ship" speed="3.65" length="3.23" shape="244.30,641.80 244.86,642.51 245.75,642.48 246.99,641.74"/>
    </edge>
    <edge id=":10279356815_3" function="internal">
        <lane id=":10279356815_3_0" index="0" disallow="tram rail_urban rail rail_electric rail_fast ship" speed="6.73" length="9.32" shape="249.81,649.51 247.69,647.98 246.52,646.18 246.28,644.10 246.99,641.74"/>
    </edge>
    <edge id=":10279356815_4" function="internal">
        <lane id=":10279356815_4_0" index="0" disallow="tram rail_urban rail rail_electric rail_fast ship" speed="7.91" length="14.41" shape="249.81,649.51 246.07,648.14 242.85,648.34 240.15,650.10 237.97,653.42"/>
    </edge>
    <edge id=":10279356815_5" function="internal">
        <lane id=":10279356815_5_0" index="0" disallow="tram rail_urban rail rail_electric rail_fast ship" speed="3.65" length="4.67" shape="249.81,649.51 248.37,649.65 247.64,650.16 247.61,651.05 248.29,652.33"/>
    </edge>
    <edge id=":10279356815_6" function="internal">
        <lane id=":10279356815_6_0" index="0" disallow="tram rail_urban rail rail_electric rail_fast ship" speed="6.39" length="9.04" shape="240.86,654.78 242.23,652.70 243.93,651.59 245.95,651.47 248.29,652.33"/>
    </edge>
    <edge id=":10279356815_7" function="internal">
        <lane id=":10279356815_7_0" index="0" disallow="tram rail_urban rail rail_electric rail_fast ship" speed="22.22" length="14.41" shape="240.86,654.78 246.99,641.74"/>
    </edge>
    <edge id=":10279356815_8" function="internal">
        <lane id=":10279356815_8_0" index="0" disallow="tram rail_urban rail rail_electric rail_fast ship" speed="3.65" length="1.44" shape="240.86,654.78 240.65,653.36"/>
    </edge>
    <edge id=":10279356815_11" function="internal">