<?xml version="1.0" encoding="UTF-8"?>

<!-- generated on 2023-05-22 08:50:13 by Eclipse SUMO netedit Version 1.16.0
<configuration xmlns:xsi="http://www.w3.org/2001/XMLSchema-instance" xsi:noNamespaceSchemaLocation="http://sumo.dlr.de/xsd/netconvertConfiguration.xsd">

    <input>
        <sumo-net-file value="C:\SUMO\4x4_new\4x4_grid.net.xml"/>
    </input>

    <output>
        <output-file value="C:\SUMO\4x4_new\4x4_grid.net.xml"/>
    </output>

    <processing>
        <geometry.min-radius.fix.railways value="false"/>
        <geometry.max-grade.fix value="false"/>
        <offset.disable-normalization value="true"/>
        <lefthand value="0"/>
    </processing>

    <junctions>
        <no-turnarounds value="true"/>
        <junctions.corner-detail value="5"/>
        <junctions.limit-turn-speed value="5.50"/>
        <rectangular-lane-cut value="0"/>
    </junctions>

    <pedestrian>
        <walkingareas value="0"/>
    </pedestrian>

</configuration>
-->

<net version="1.16" junctionCornerDetail="5" limitTurnSpeed="5.50" xmlns:xsi="http://www.w3.org/2001/XMLSchema-instance" xsi:noNamespaceSchemaLocation="http://sumo.dlr.de/xsd/net_file.xsd">

    <location netOffset="0.00,0.00" convBoundary="-1200.00,-1100.00,300.00,400.00" origBoundary="-10000000000.00,-10000000000.00,10000000000.00,10000000000.00" projParameter="!"/>

    <edge id=":A0_0" function="internal">
        <lane id=":A0_0_0" index="0" speed="6.51" length="9.03" shape="-901.60,107.20 -901.95,104.75 -903.00,103.00 -904.75,101.95 -907.20,101.60"/>
    </edge>
    <edge id=":A0_1" function="internal">
        <lane id=":A0_1_0" index="0" speed="13.89" length="14.40" shape="-901.60,107.20 -901.60,92.80"/>
    </edge>
    <edge id=":A0_2" function="internal">
        <lane id=":A0_2_0" index="0" speed="8.00" length="4.07" shape="-901.60,107.20 -901.05,103.35 -900.96,103.20"/>
    </edge>
    <edge id=":A0_12" function="internal">
        <lane id=":A0_12_0" index="0" speed="8.00" length="10.13" shape="-900.96,103.20 -899.40,100.60 -896.65,98.95 -892.80,98.40"/>
    </edge>
    <edge id=":A0_3" function="internal">
        <lane id=":A0_3_0" index="0" speed="6.51" length="9.03" shape="-892.80,101.60 -895.25,101.95 -897.00,103.00 -898.05,104.75 -898.40,107.20"/>
    </edge>
    <edge id=":A0_4" function="internal">
        <lane id=":A0_4_0" index="0" speed="13.89" length="14.40" shape="-892.80,101.60 -907.20,101.60"/>
    </edge>
    <edge id=":A0_5" function="internal">
        <lane id=":A0_5_0" index="0" speed="8.00" length="4.07" shape="-892.80,101.60 -896.65,101.05 -896.80,100.96"/>
    </edge>
    <edge id=":A0_13" function="internal">
        <lane id=":A0_13_0" index="0" speed="8.00" length="10.13" shape="-896.80,100.96 -899.40,99.40 -901.05,96.65 -901.60,92.80"/>
    </edge>
    <edge id=":A0_6" function="internal">
        <lane id=":A0_6_0" index="0" speed="6.51" length="9.03" shape="-898.40,92.80 -898.05,95.25 -897.00,97.00 -895.25,98.05 -892.80,98.40"/>
    </edge>
    <edge id=":A0_7" function="internal">
        <lane id=":A0_7_0" index="0" speed="13.89" length="14.40" shape="-898.40,92.80 -898.40,107.20"/>
    </edge>
    <edge id=":A0_8" function="internal">
        <lane id=":A0_8_0" index="0" speed="8.00" length="4.07" shape="-898.40,92.80 -898.95,96.65 -899.04,96.80"/>
    </edge>
    <edge id=":A0_14" function="internal">
        <lane id=":A0_14_0" index="0" speed="8.00" length="10.13" shape="-899.04,96.80 -900.60,99.40 -903.35,101.05 -907.20,101.60"/>
    </edge>
    <edge id=":A0_9" function="internal">
        <lane id=":A0_9_0" index="0" speed="6.51" length="9.03" shape="-907.20,98.40 -904.75,98.05 -903.00,97.00 -901.95,95.25 -901.60,92.80"/>
    </edge>
    <edge id=":A0_10" function="internal">
        <lane id=":A0_10_0" index="0" speed="13.89" length="14.40" shape="-907.20,98.40 -892.80,98.40"/>
    </edge>
    <edge id=":A0_11" function="internal">
        <lane id=":A0_11_0" index="0" speed="8.00" length="4.07" shape="-907.20,98.40 -903.35,98.95 -903.20,99.04"/>
    </edge>
    <edge id=":A0_15" function="internal">
        <lane id=":A0_15_0" index="0" speed="8.00" length="10.13" shape="-903.20,99.04 -900.60,100.60 -898.95,103.35 -898.40,107.20"/>
    </edge>
    <edge id=":A1_0" function="internal">
        <lane id=":A1_0_0" index="0" speed="6.51" length="9.03" shape="-901.60,-192.80 -901.95,-195.25 -903.00,-197.00 -904.75,-198.05 -907.20,-198.40"/>
    </edge>
    <edge id=":A1_1" function="internal">
        <lane id=":A1_1_0" index="0" speed="13.89" length="14.40" shape="-901.60,-192.80 -901.60,-207.20"/>
    </edge>
    <edge id=":A1_2" function="internal">
        <lane id=":A1_2_0" index="0" speed="8.00" length="4.07" shape="-901.60,-192.80 -901.05,-196.65 -900.96,-196.80"/>
    </edge>
    <edge id=":A1_12" function="internal">
        <lane id=":A1_12_0" index="0" speed="8.00" length="10.13" shape="-900.96,-196.80 -899.40,-199.40 -896.65,-201.05 -892.80,-201.60"/>
    </edge>
    <edge id=":A1_3" function="internal">
        <lane id=":A1_3_0" index="0" speed="6.51" length="9.03" shape="-892.80,-198.40 -895.25,-198.05 -897.00,-197.00 -898.05,-195.25 -898.40,-192.80"/>
    </edge>
    <edge id=":A1_4" function="internal">
        <lane id=":A1_4_0" index="0" speed="13.89" length="14.40" shape="-892.80,-198.40 -907.20,-198.40"/>
    </edge>
    <edge id=":A1_5" function="internal">
        <lane id=":A1_5_0" index="0" speed="8.00" length="4.07" shape="-892.80,-198.40 -896.65,-198.95 -896.80,-199.04"/>
    </edge>
    <edge id=":A1_13" function="internal">
        <lane id=":A1_13_0" index="0" speed="8.00" length="10.13" shape="-896.80,-199.04 -899.40,-200.60 -901.05,-203.35 -901.60,-207.20"/>
    </edge>
    <edge id=":A1_6" function="internal">
        <lane id=":A1_6_0" index="0" speed="6.51" length="9.03" shape="-898.40,-207.20 -898.05,-204.75 -897.00,-203.00 -895.25,-201.95 -892.80,-201.60"/>
    </edge>
    <edge id=":A1_7" function="internal">
        <lane id=":A1_7_0" index="0" speed="13.89" length="14.40" shape="-898.40,-207.20 -898.40,-192.80"/>
    </edge>
    <edge id=":A1_8" function="internal">
        <lane id=":A1_8_0" index="0" speed="8.00" length="4.07" shape="-898.40,-207.20 -898.95,-203.35 -899.04,-203.20"/>
    </edge>
    <edge id=":A1_14" function="internal">
        <lane id=":A1_14_0" index="0" speed="8.00" length="10.13" shape="-899.04,-203.20 -900.60,-200.60 -903.35,-198.95 -907.20,-198.40"/>
    </edge>
    <edge id=":A1_9" function="internal">
        <lane id=":A1_9_0" index="0" speed="6.51" length="9.03" shape="-907.20,-201.60 -904.75,-201.95 -903.00,-203.00 -901.95,-204.75 -901.60,-207.20"/>
    </edge>
    <edge id=":A1_10" function="internal">
        <lane id=":A1_10_0" index="0" speed="13.89" length="14.40" shape="-907.20,-201.60 -892.80,-201.60"/>
    </edge>
    <edge id=":A1_11" function="internal">
        <lane id=":A1_11_0" index="0" speed="8.00" length="4.07" shape="-907.20,-201.60 -903.35,-201.05 -903.20,-200.96"/>
    </edge>
    <edge id=":A1_15" function="internal">
        <lane id=":A1_15_0" index="0" speed="8.00" length="10.13" shape="-903.20,-200.96 -900.60,-199.40 -898.95,-196.65 -898.40,-192.80"/>
    </edge>
    <edge id=":B0_0" function="internal">
        <lane id=":B0_0_0" index="0" speed="6.51" length="9.03" shape="-601.60,107.20 -601.95,104.75 -603.00,103.00 -604.75,101.95 -607.20,101.60"/>
    </edge>
    <edge id=":B0_1" function="internal">
        <lane id=":B0_1_0" index="0" speed="13.89" length="14.40" shape="-601.60,107.20 -601.60,92.80"/>
    </edge>
    <edge id=":B0_2" function="internal">
        <lane id=":B0_2_0" index="0" speed="8.00" length="4.07" shape="-601.60,107.20 -601.05,103.35 -600.96,103.20"/>
    </edge>
    <edge id=":B0_12" function="internal">
        <lane id=":B0_12_0" index="0" speed="8.00" length="10.13" shape="-600.96,103.20 -599.40,100.60 -596.65,98.95 -592.80,98.40"/>
    </edge>
    <edge id=":B0_3" function="internal">
        <lane id=":B0_3_0" index="0" speed="6.51" length="9.03" shape="-592.80,101.60 -595.25,101.95 -597.00,103.00 -598.05,104.75 -598.40,107.20"/>
    </edge>
    <edge id=":B0_4" function="internal">
        <lane id=":B0_4_0" index="0" speed="13.89" length="14.40" shape="-592.80,101.60 -607.20,101.60"/>
    </edge>
    <edge id=":B0_5" function="internal">
        <lane id=":B0_5_0" index="0" speed="8.00" length="4.07" shape="-592.80,101.60 -596.65,101.05 -596.80,100.96"/>
    </edge>
    <edge id=":B0_13" function="internal">
        <lane id=":B0_13_0" index="0" speed="8.00" length="10.13" shape="-596.80,100.96 -599.40,99.40 -601.05,96.65 -601.60,92.80"/>
    </edge>
    <edge id=":B0_6" function="internal">
        <lane id=":B0_6_0" index="0" speed="6.51" length="9.03" shape="-598.40,92.80 -598.05,95.25 -597.00,97.00 -595.25,98.05 -592.80,98.40"/>
    </edge>
    <edge id=":B0_7" function="internal">
        <lane id=":B0_7_0" index="0" speed="13.89" length="14.40" shape="-598.40,92.80 -598.40,107.20"/>
    </edge>
    <edge id=":B0_8" function="internal">
        <lane id=":B0_8_0" index="0" speed="8.00" length="4.07" shape="-598.40,92.80 -598.95,96.65 -599.04,96.80"/>
    </edge>
    <edge id=":B0_14" function="internal">
        <lane id=":B0_14_0" index="0" speed="8.00" length="10.13" shape="-599.04,96.80 -600.60,99.40 -603.35,101.05 -607.20,101.60"/>
    </edge>
    <edge id=":B0_9" function="internal">
        <lane id=":B0_9_0" index="0" speed="6.51" length="9.03" shape="-607.20,98.40 -604.75,98.05 -603.00,97.00 -601.95,95.25 -601.60,92.80"/>
    </edge>
    <edge id=":B0_10" function="internal">
        <lane id=":B0_10_0" index="0" speed="13.89" length="14.40" shape="-607.20,98.40 -592.80,98.40"/>
    </edge>
    <edge id=":B0_11" function="internal">
        <lane id=":B0_11_0" index="0" speed="8.00" length="4.07" shape="-607.20,98.40 -603.35,98.95 -603.20,99.04"/>
    </edge>
    <edge id=":B0_15" function="internal">
        <lane id=":B0_15_0" index="0" speed="8.00" length="10.13" shape="-603.20,99.04 -600.60,100.60 -598.95,103.35 -598.40,107.20"/>
    </edge>
    <edge id=":B1_0" function="internal">
        <lane id=":B1_0_0" index="0" speed="6.51" length="9.03" shape="-601.60,-192.80 -601.95,-195.25 -603.00,-197.00 -604.75,-198.05 -607.20,-198.40"/>
    </edge>
    <edge id=":B1_1" function="internal">
        <lane id=":B1_1_0" index="0" speed="13.89" length="14.40" shape="-601.60,-192.80 -601.60,-207.20"/>
    </edge>
    <edge id=":B1_2" function="internal">
        <lane id=":B1_2_0" index="0" speed="8.00" length="4.07" shape="-601.60,-192.80 -601.05,-196.65 -600.96,-196.80"/>
    </edge>
    <edge id=":B1_12" function="internal">
        <lane id=":B1_12_0" index="0" speed="8.00" length="10.13" shape="-600.96,-196.80 -599.40,-199.40 -596.65,-201.05 -592.80,-201.60"/>
    </edge>
    <edge id=":B1_3" function="internal">
        <lane id=":B1_3_0" index="0" speed="6.51" length="9.03" shape="-592.80,-198.40 -595.25,-198.05 -597.00,-197.00 -598.05,-195.25 -598.40,-192.80"/>
    </edge>
    <edge id=":B1_4" function="internal">
        <lane id=":B1_4_0" index="0" speed="13.89" length="14.40" shape="-592.80,-198.40 -607.20,-198.40"/>
    </edge>
    <edge id=":B1_5" function="internal">
        <lane id=":B1_5_0" index="0" speed="8.00" length="4.07" shape="-592.80,-198.40 -596.65,-198.95 -596.80,-199.04"/>
    </edge>
    <edge id=":B1_13" function="internal">
        <lane id=":B1_13_0" index="0" speed="8.00" length="10.13" shape="-596.80,-199.04 -599.40,-200.60 -601.05,-203.35 -601.60,-207.20"/>
    </edge>
    <edge id=":B1_6" function="internal">
        <lane id=":B1_6_0" index="0" speed="6.51" length="9.03" shape="-598.40,-207.20 -598.05,-204.75 -597.00,-203.00 -595.25,-201.95 -592.80,-201.60"/>
    </edge>
    <edge id=":B1_7" function="internal">
        <lane id=":B1_7_0" index="0" speed="13.89" length="14.40" shape="-598.40,-207.20 -598.40,-192.80"/>
    </edge>
    <edge id=":B1_8" function="internal">
        <lane id=":B1_8_0" index="0" speed="8.00" length="4.07" shape="-598.40,-207.20 -598.95,-203.35 -599.04,-203.20"/>
    </edge>
    <edge id=":B1_14" function="internal">
        <lane id=":B1_14_0" index="0" speed="8.00" length="10.13" shape="-599.04,-203.20 -600.60,-200.60 -603.35,-198.95 -607.20,-198.40"/>
    </edge>
    <edge id=":B1_9" function="internal">
        <lane id=":B1_9_0" index="0" speed="6.51" length="9.03" shape="-607.20,-201.60 -604.75,-201.95 -603.00,-203.00 -601.95,-204.75 -601.60,-207.20"/>
    </edge>
    <edge id=":B1_10" function="internal">
        <lane id=":B1_10_0" index="0" speed="13.89" length="14.40" shape="-607.20,-201.60 -592.80,-201.60"/>
    </edge>
    <edge id=":B1_11" function="internal">
        <lane id=":B1_11_0" index="0" speed="8.00" length="4.07" shape="-607.20,-201.60 -603.35,-201.05 -603.20,-200.96"/>
    </edge>
    <edge id=":B1_15" function="internal">
        <lane id=":B1_15_0" index="0" speed="8.00" length="10.13" shape="-603.20,-200.96 -600.60,-199.40 -598.95,-196.65 -598.40,-192.80"/>
    </edge>
    <edge id=":C0_0" function="internal">
        <lane id=":C0_0_0" index="0" speed="6.51" length="9.03" shape="-301.60,107.20 -301.95,104.75 -303.00,103.00 -304.75,101.95 -307.20,101.60"/>
    </edge>
    <edge id=":C0_1" function="internal">
        <lane id=":C0_1_0" index="0" speed="13.89" length="14.40" shape="-301.60,107.20 -301.60,92.80"/>
    </edge>
    <edge id=":C0_2" function="internal">
        <lane id=":C0_2_0" index="0" speed="8.00" length="4.07" shape="-301.60,107.20 -301.05,103.35 -300.96,103.20"/>
    </edge>
    <edge id=":C0_12" function="internal">
        <lane id=":C0_12_0" index="0" speed="8.00" length="10.13" shape="-300.96,103.20 -299.40,100.60 -296.65,98.95 -292.80,98.40"/>
    </edge>
    <edge id=":C0_3" function="internal">
        <lane id=":C0_3_0" index="0" speed="6.51" length="9.03" shape="-292.80,101.60 -295.25,101.95 -297.00,103.00 -298.05,104.75 -298.40,107.20"/>
    </edge>
    <edge id=":C0_4" function="internal">
        <lane id=":C0_4_0" index="0" speed="13.89" length="14.40" shape="-292.80,101.60 -307.20,101.60"/>
    </edge>
    <edge id=":C0_5" function="internal">
        <lane id=":C0_5_0" index="0" speed="8.00" length="4.07" shape="-292.80,101.60 -296.65,101.05 -296.80,100.96"/>
    </edge>
    <edge id=":C0_13" function="internal">
        <lane id=":C0_13_0" index="0" speed="8.00" length="10.13" shape="-296.80,100.96 -299.40,99.40 -301.05,96.65 -301.60,92.80"/>
    </edge>
    <edge id=":C0_6" function="internal">
        <lane id=":C0_6_0" index="0" speed="6.51" length="9.03" shape="-298.40,92.80 -298.05,95.25 -297.00,97.00 -295.25,98.05 -292.80,98.40"/>
    </edge>
    <edge id=":C0_7" function="internal">
        <lane id=":C0_7_0" index="0" speed="13.89" length="14.40" shape="-298.40,92.80 -298.40,107.20"/>
    </edge>
    <edge id=":C0_8" function="internal">
        <lane id=":C0_8_0" index="0" speed="8.00" length="4.07" shape="-298.40,92.80 -298.95,96.65 -299.04,96.80"/>
    </edge>
    <edge id=":C0_14" function="internal">
        <lane id=":C0_14_0" index="0" speed="8.00" length="10.13" shape="-299.04,96.80 -300.60,99.40 -303.35,101.05 -307.20,101.60"/>
    </edge>
    <edge id=":C0_9" function="internal">
        <lane id=":C0_9_0" index="0" speed="6.51" length="9.03" shape="-307.20,98.40 -304.75,98.05 -303.00,97.00 -301.95,95.25 -301.60,92.80"/>
    </edge>
    <edge id=":C0_10" function="internal">
        <lane id=":C0_10_0" index="0" speed="13.89" length="14.40" shape="-307.20,98.40 -292.80,98.40"/>
    </edge>
    <edge id=":C0_11" function="internal">
        <lane id=":C0_11_0" index="0" speed="8.00" length="4.07" shape="-307.20,98.40 -303.35,98.95 -303.20,99.04"/>
    </edge>
    <edge id=":C0_15" function="internal">
        <lane id=":C0_15_0" index="0" speed="8.00" length="10.13" shape="-303.20,99.04 -300.60,100.60 -298.95,103.35 -298.40,107.20"/>
    </edge>
    <edge id=":C1_0" function="internal">
        <lane id=":C1_0_0" index="0" speed="6.51" length="9.03" shape="-301.60,-192.80 -301.95,-195.25 -303.00,-197.00 -304.75,-198.05 -307.20,-198.40"/>
    </edge>
    <edge id=":C1_1" function="internal">
        <lane id=":C1_1_0" index="0" speed="13.89" length="14.40" shape="-301.60,-192.80 -301.60,-207.20"/>
    </edge>
    <edge id=":C1_2" function="internal">
        <lane id=":C1_2_0" index="0" speed="8.00" length="4.07" shape="-301.60,-192.80 -301.05,-196.65 -300.96,-196.80"/>
    </edge>
    <edge id=":C1_12" function="internal">
        <lane id=":C1_12_0" index="0" speed="8.00" length="10.13" shape="-300.96,-196.80 -299.40,-199.40 -296.65,-201.05 -292.80,-201.60"/>
    </edge>
    <edge id=":C1_3" function="internal">
        <lane id=":C1_3_0" index="0" speed="6.51" length="9.03" shape="-292.80,-198.40 -295.25,-198.05 -297.00,-197.00 -298.05,-195.25 -298.40,-192.80"/>
    </edge>
    <edge id=":C1_4" function="internal">
        <lane id=":C1_4_0" index="0" speed="13.89" length="14.40" shape="-292.80,-198.40 -307.20,-198.40"/>
    </edge>
    <edge id=":C1_5" function="internal">
        <lane id=":C1_5_0" index="0" speed="8.00" length="4.07" shape="-292.80,-198.40 -296.65,-198.95 -296.80,-199.04"/>
    </edge>
    <edge id=":C1_13" function="internal">
        <lane id=":C1_13_0" index="0" speed="8.00" length="10.13" shape="-296.80,-199.04 -299.40,-200.60 -301.05,-203.35 -301.60,-207.20"/>
    </edge>
    <edge id=":C1_6" function="internal">
        <lane id=":C1_6_0" index="0" speed="6.51" length="9.03" shape="-298.40,-207.20 -298.05,-204.75 -297.00,-203.00 -295.25,-201.95 -292.80,-201.60"/>
    </edge>
    <edge id=":C1_7" function="internal">
        <lane id=":C1_7_0" index="0" speed="13.89" length="14.40" shape="-298.40,-207.20 -298.40,-192.80"/>
    </edge>
    <edge id=":C1_8" function="internal">
        <lane id=":C1_8_0" index="0" speed="8.00" length="4.07" shape="-298.40,-207.20 -298.95,-203.35 -299.04,-203.20"/>
    </edge>
    <edge id=":C1_14" function="internal">
        <lane id=":C1_14_0" index="0" speed="8.00" length="10.13" shape="-299.04,-203.20 -300.60,-200.60 -303.35,-198.95 -307.20,-198.40"/>
    </edge>
    <edge id=":C1_9" function="internal">
        <lane id=":C1_9_0" index="0" speed="6.51" length="9.03" shape="-307.20,-201.60 -304.75,-201.95 -303.00,-203.00 -301.95,-204.75 -301.60,-207.20"/>
    </edge>
    <edge id=":C1_10" function="internal">
        <lane id=":C1_10_0" index="0" speed="13.89" length="14.40" shape="-307.20,-201.60 -292.80,-201.60"/>
    </edge>
    <edge id=":C1_11" function="internal">
        <lane id=":C1_11_0" index="0" speed="8.00" length="4.07" shape="-307.20,-201.60 -303.35,-201.05 -303.20,-200.96"/>
    </edge>
    <edge id=":C1_15" function="internal">
        <lane id=":C1_15_0" index="0" speed="8.00" length="10.13" shape="-303.20,-200.96 -300.60,-199.40 -298.95,-196.65 -298.40,-192.80"/>
    </edge>
    <edge id=":D0_0" function="internal">
        <lane id=":D0_0_0" index="0" speed="6.51" length="9.03" shape="-1.60,107.20 -1.95,104.75 -3.00,103.00 -4.75,101.95 -7.20,101.60"/>
    </edge>
    <edge id=":D0_1" function="internal">
        <lane id=":D0_1_0" index="0" speed="13.89" length="14.40" shape="-1.60,107.20 -1.60,92.80"/>
    </edge>
    <edge id=":D0_2" function="internal">
        <lane id=":D0_2_0" index="0" speed="8.00" length="4.07" shape="-1.60,107.20 -1.05,103.35 -0.96,103.20"/>
    </edge>
    <edge id=":D0_12" function="internal">
        <lane id=":D0_12_0" index="0" speed="8.00" length="10.13" shape="-0.96,103.20 0.60,100.60 3.35,98.95 7.20,98.40"/>
    </edge>
    <edge id=":D0_3" function="internal">
        <lane id=":D0_3_0" index="0" speed="6.51" length="9.03" shape="7.20,101.60 4.75,101.95 3.00,103.00 1.95,104.75 1.60,107.20"/>
    </edge>
    <edge id=":D0_4" function="internal">
        <lane id=":D0_4_0" index="0" speed="13.89" length="14.40" shape="7.20,101.60 -7.20,101.60"/>
    </edge>
    <edge id=":D0_5" function="internal">
        <lane id=":D0_5_0" index="0" speed="8.00" length="4.07" shape="7.20,101.60 3.35,101.05 3.20,100.96"/>
    </edge>
    <edge id=":D0_13" function="internal">
        <lane id=":D0_13_0" index="0" speed="8.00" length="10.13" shape="3.20,100.96 0.60,99.40 -1.05,96.65 -1.60,92.80"/>
    </edge>
    <edge id=":D0_6" function="internal">
        <lane id=":D0_6_0" index="0" speed="6.51" length="9.03" shape="1.60,92.80 1.95,95.25 3.00,97.00 4.75,98.05 7.20,98.40"/>
    </edge>
    <edge id=":D0_7" function="internal">
        <lane id=":D0_7_0" index="0" speed="13.89" length="14.40" shape="1.60,92.80 1.60,107.20"/>
    </edge>
    <edge id=":D0_8" function="internal">
        <lane id=":D0_8_0" index="0" speed="8.00" length="4.07" shape="1.60,92.80 1.05,96.65 0.96,96.80"/>
    </edge>
    <edge id=":D0_14" function="internal">
        <lane id=":D0_14_0" index="0" speed="8.00" length="10.13" shape="0.96,96.80 -0.60,99.40 -3.35,101.05 -7.20,101.60"/>
    </edge>
    <edge id=":D0_9" function="internal">
        <lane id=":D0_9_0" index="0" speed="6.51" length="9.03" shape="-7.20,98.40 -4.75,98.05 -3.00,97.00 -1.95,95.25 -1.60,92.80"/>
    </edge>
    <edge id=":D0_10" function="internal">
        <lane id=":D0_10_0" index="0" speed="13.89" length="14.40" shape="-7.20,98.40 7.20,98.40"/>
    </edge>
    <edge id=":D0_11" function="internal">
        <lane id=":D0_11_0" index="0" speed="8.00" length="4.07" shape="-7.20,98.40 -3.35,98.95 -3.20,99.04"/>
    </edge>
    <edge id=":D0_15" function="internal">
        <lane id=":D0_15_0" index="0" speed="8.00" length="10.13" shape="-3.20,99.04 -0.60,100.60 1.05,103.35 1.60,107.20"/>
    </edge>
    <edge id=":D1_0" function="internal">
        <lane id=":D1_0_0" index="0" speed="6.51" length="9.03" shape="-1.60,-192.80 -1.95,-195.25 -3.00,-197.00 -4.75,-198.05 -7.20,-198.40"/>
    </edge>
    <edge id=":D1_1" function="internal">
        <lane id=":D1_1_0" index="0" speed="13.89" length="14.40" shape="-1.60,-192.80 -1.60,-207.20"/>
    </edge>
    <edge id=":D1_2" function="internal">
        <lane id=":D1_2_0" index="0" speed="8.00" length="4.07" shape="-1.60,-192.80 -1.05,-196.65 -0.96,-196.80"/>
    </edge>
    <edge id=":D1_12" function="internal">
        <lane id=":D1_12_0" index="0" speed="8.00" length="10.13" shape="-0.96,-196.80 0.60,-199.40 3.35,-201.05 7.20,-201.60"/>
    </edge>
    <edge id=":D1_3" function="internal">
        <lane id=":D1_3_0" index="0" speed="6.51" length="9.03" shape="7.20,-198.40 4.75,-198.05 3.00,-197.00 1.95,-195.25 1.60,-192.80"/>
    </edge>
    <edge id=":D1_4" function="internal">
        <lane id=":D1_4_0" index="0" speed="13.89" length="14.40" shape="7.20,-198.40 -7.20,-198.40"/>
    </edge>
    <edge id=":D1_5" function="internal">
        <lane id=":D1_5_0" index="0" speed="8.00" length="4.07" shape="7.20,-198.40 3.35,-198.95 3.20,-199.04"/>
    </edge>
    <edge id=":D1_13" function="internal">
        <lane id=":D1_13_0" index="0" speed="8.00" length="10.13" shape="3.20,-199.04 0.60,-200.60 -1.05,-203.35 -1.60,-207.20"/>
    </edge>
    <edge id=":D1_6" function="internal">
        <lane id=":D1_6_0" index="0" speed="6.51" length="9.03" shape="1.60,-207.20 1.95,-204.75 3.00,-203.00 4.75,-201.95 7.20,-201.60"/>
    </edge>
    <edge id=":D1_7" function="internal">
        <lane id=":D1_7_0" index="0" speed="13.89" length="14.40" shape="1.60,-207.20 1.60,-192.80"/>
    </edge>
    <edge id=":D1_8" function="internal">
        <lane id=":D1_8_0" index="0" speed="8.00" length="4.07" shape="1.60,-207.20 1.05,-203.35 0.96,-203.20"/>
    </edge>
    <edge id=":D1_14" function="internal">
        <lane id=":D1_14_0" index="0" speed="8.00" length="10.13" shape="0.96,-203.20 -0.60,-200.60 -3.35,-198.95 -7.20,-198.40"/>
    </edge>
    <edge id=":D1_9" function="internal">
        <lane id=":D1_9_0" index="0" speed="6.51" length="9.03" shape="-7.20,-201.60 -4.75,-201.95 -3.00,-203.00 -1.95,-204.75 -1.60,-207.20"/>
    </edge>
    <edge id=":D1_10" function="internal">
        <lane id=":D1_10_0" index="0" speed="13.89" length="14.40" shape="-7.20,-201.60 7.20,-201.60"/>
    </edge>
    <edge id=":D1_11" function="internal">
        <lane id=":D1_11_0" index="0" speed="8.00" length="4.07" shape="-7.20,-201.60 -3.35,-201.05 -3.20,-200.96"/>
    </edge>
    <edge id=":D1_15" function="internal">
        <lane id=":D1_15_0" index="0" speed="8.00" length="10.13" shape="-3.20,-200.96 -0.60,-199.40 1.05,-196.65 1.60,-192.80"/>
    </edge>
    <edge id=":J10_0" function="internal">
        <lane id=":J10_0_0" index="0" speed="6.51" length="9.03" shape="-901.60,-492.80 -901.95,-495.25 -903.00,-497.00 -904.75,-498.05 -907.20,-498.40"/>
    </edge>
    <edge id=":J10_1" function="internal">
        <lane id=":J10_1_0" index="0" speed="13.89" length="14.40" shape="-901.60,-492.80 -901.60,-507.20"/>
    </edge>
    <edge id=":J10_2" function="internal">
        <lane id=":J10_2_0" index="0" speed="8.00" length="4.07" shape="-901.60,-492.80 -901.05,-496.65 -900.96,-496.80"/>
    </edge>
    <edge id=":J10_12" function="internal">
        <lane id=":J10_12_0" index="0" speed="8.00" length="10.13" shape="-900.96,-496.80 -899.40,-499.40 -896.65,-501.05 -892.80,-501.60"/>
    </edge>
    <edge id=":J10_3" function="internal">
        <lane id=":J10_3_0" index="0" speed="6.51" length="9.03" shape="-892.80,-498.40 -895.25,-498.05 -897.00,-497.00 -898.05,-495.25 -898.40,-492.80"/>
    </edge>
    <edge id=":J10_4" function="internal">
        <lane id=":J10_4_0" index="0" speed="13.89" length="14.40" shape="-892.80,-498.40 -907.20,-498.40"/>
    </edge>
    <edge id=":J10_5" function="internal">
        <lane id=":J10_5_0" index="0" speed="8.00" length="4.07" shape="-892.80,-498.40 -896.65,-498.95 -896.80,-499.04"/>
    </edge>
    <edge id=":J10_13" function="internal">
        <lane id=":J10_13_0" index="0" speed="8.00" length="10.13" shape="-896.80,-499.04 -899.40,-500.60 -901.05,-503.35 -901.60,-507.20"/>
    </edge>
    <edge id=":J10_6" function="internal">
        <lane id=":J10_6_0" index="0" speed="6.51" length="9.03" shape="-898.40,-507.20 -898.05,-504.75 -897.00,-503.00 -895.25,-501.95 -892.80,-501.60"/>
    </edge>
    <edge id=":J10_7" function="internal">
        <lane id=":J10_7_0" index="0" speed="13.89" length="14.40" shape="-898.40,-507.20 -898.40,-492.80"/>
    </edge>
    <edge id=":J10_8" function="internal">
        <lane id=":J10_8_0" index="0" speed="8.00" length="4.07" shape="-898.40,-507.20 -898.95,-503.35 -899.04,-503.20"/>
    </edge>
    <edge id=":J10_14" function="internal">
        <lane id=":J10_14_0" index="0" speed="8.00" length="10.13" shape="-899.04,-503.20 -900.60,-500.60 -903.35,-498.95 -907.20,-498.40"/>
    </edge>
    <edge id=":J10_9" function="internal">
        <lane id=":J10_9_0" index="0" speed="6.51" length="9.03" shape="-907.20,-501.60 -904.75,-501.95 -903.00,-503.00 -901.95,-504.75 -901.60,-507.20"/>
    </edge>
    <edge id=":J10_10" function="internal">
        <lane id=":J10_10_0" index="0" speed="13.89" length="14.40" shape="-907.20,-501.60 -892.80,-501.60"/>
    </edge>
    <edge id=":J10_11" function="internal">
        <lane id=":J10_11_0" index="0" speed="8.00" length="4.07" shape="-907.20,-501.60 -903.35,-501.05 -903.20,-500.96"/>
    </edge>
    <edge id=":J10_15" function="internal">
        <lane id=":J10_15_0" index="0" speed="8.00" length="10.13" shape="-903.20,-500.96 -900.60,-499.40 -898.95,-496.65 -898.40,-492.80"/>
    </edge>
    <edge id=":J11_0" function="internal">
        <lane id=":J11_0_0" index="0" speed="6.51" length="9.03" shape="-601.60,-492.80 -601.95,-495.25 -603.00,-497.00 -604.75,-498.05 -607.20,-498.40"/>
    </edge>
    <edge id=":J11_1" function="internal">
        <lane id=":J11_1_0" index="0" speed="13.89" length="14.40" shape="-601.60,-492.80 -601.60,-507.20"/>
    </edge>
    <edge id=":J11_2" function="internal">
        <lane id=":J11_2_0" index="0" speed="8.00" length="4.07" shape="-601.60,-492.80 -601.05,-496.65 -600.96,-496.80"/>
    </edge>
    <edge id=":J11_12" function="internal">
        <lane id=":J11_12_0" index="0" speed="8.00" length="10.13" shape="-600.96,-496.80 -599.40,-499.40 -596.65,-501.05 -592.80,-501.60"/>
    </edge>
    <edge id=":J11_3" function="internal">
        <lane id=":J11_3_0" index="0" speed="6.51" length="9.03" shape="-592.80,-498.40 -595.25,-498.05 -597.00,-497.00 -598.05,-495.25 -598.40,-492.80"/>
    </edge>
    <edge id=":J11_4" function="internal">
        <lane id=":J11_4_0" index="0" speed="13.89" length="14.40" shape="-592.80,-498.40 -607.20,-498.40"/>
    </edge>
    <edge id=":J11_5" function="internal">
        <lane id=":J11_5_0" index="0" speed="8.00" length="4.07" shape="-592.80,-498.40 -596.65,-498.95 -596.80,-499.04"/>
    </edge>
    <edge id=":J11_13" function="internal">
        <lane id=":J11_13_0" index="0" speed="8.00" length="10.13" shape="-596.80,-499.04 -599.40,-500.60 -601.05,-503.35 -601.60,-507.20"/>
    </edge>
    <edge id=":J11_6" function="internal">
        <lane id=":J11_6_0" index="0" speed="6.51" length="9.03" shape="-598.40,-507.20 -598.05,-504.75 -597.00,-503.00 -595.25,-501.95 -592.80,-501.60"/>
    </edge>
    <edge id=":J11_7" function="internal">
        <lane id=":J11_7_0" index="0" speed="13.89" length="14.40" shape="-598.40,-507.20 -598.40,-492.80"/>
    </edge>
    <edge id=":J11_8" function="internal">